Version 4
SHEET 1 1180 1176
WIRE 752 -112 752 -144
WIRE 320 -80 192 -80
WIRE -64 -16 -64 -48
WIRE 256 64 256 32
WIRE 192 80 192 -80
WIRE 224 80 192 80
WIRE 320 96 320 -80
WIRE 320 96 288 96
WIRE 752 96 752 -48
WIRE 752 96 320 96
WIRE 848 96 752 96
WIRE 1024 96 928 96
WIRE -832 112 -1104 112
WIRE -480 112 -752 112
WIRE -384 112 -480 112
WIRE -64 112 -64 64
WIRE -64 112 -304 112
WIRE 80 112 -64 112
WIRE 224 112 80 112
WIRE -64 128 -64 112
WIRE -480 144 -480 112
WIRE -1104 160 -1104 112
WIRE 256 160 256 128
WIRE 80 192 80 112
WIRE 752 224 752 96
WIRE -480 240 -480 224
WIRE -64 240 -64 208
WIRE 1024 256 1024 96
WIRE -768 288 -800 288
WIRE -640 288 -688 288
WIRE -544 288 -560 288
WIRE -352 288 -368 288
WIRE -224 288 -272 288
WIRE -128 288 -144 288
WIRE -1104 368 -1104 240
WIRE -800 368 -800 288
WIRE -800 368 -1104 368
WIRE -480 368 -480 336
WIRE -480 368 -800 368
WIRE -368 368 -368 288
WIRE -368 368 -480 368
WIRE -64 368 -64 336
WIRE -64 368 -368 368
WIRE 80 368 80 272
WIRE 80 368 -64 368
WIRE 256 368 256 240
WIRE 256 368 80 368
WIRE 752 368 752 304
WIRE 752 368 256 368
WIRE 1024 368 1024 320
WIRE 1024 368 752 368
WIRE -1104 384 -1104 368
WIRE 752 640 752 608
WIRE 320 672 192 672
WIRE -64 736 -64 704
WIRE 256 816 256 784
WIRE 192 832 192 672
WIRE 224 832 192 832
WIRE 320 848 320 672
WIRE 320 848 288 848
WIRE 752 848 752 704
WIRE 752 848 320 848
WIRE 848 848 752 848
WIRE 1024 848 928 848
WIRE -560 864 -1104 864
WIRE -384 864 -560 864
WIRE -64 864 -64 816
WIRE -64 864 -304 864
WIRE 80 864 -64 864
WIRE 224 864 80 864
WIRE -64 880 -64 864
WIRE -560 896 -560 864
WIRE -1104 912 -1104 864
WIRE 256 912 256 880
WIRE 80 944 80 864
WIRE 752 976 752 848
WIRE -560 992 -560 976
WIRE -64 992 -64 960
WIRE 1024 1008 1024 848
WIRE -848 1040 -880 1040
WIRE -720 1040 -768 1040
WIRE -624 1040 -640 1040
WIRE -352 1040 -368 1040
WIRE -224 1040 -272 1040
WIRE -128 1040 -144 1040
WIRE -1104 1120 -1104 992
WIRE -880 1120 -880 1040
WIRE -880 1120 -1104 1120
WIRE -560 1120 -560 1088
WIRE -560 1120 -880 1120
WIRE -368 1120 -368 1040
WIRE -368 1120 -560 1120
WIRE -64 1120 -64 1088
WIRE -64 1120 -368 1120
WIRE 80 1120 80 1024
WIRE 80 1120 -64 1120
WIRE 256 1120 256 992
WIRE 256 1120 80 1120
WIRE 752 1120 752 1056
WIRE 752 1120 256 1120
WIRE 1024 1120 1024 1072
WIRE 1024 1120 752 1120
WIRE -1104 1136 -1104 1120
FLAG -1104 384 0
FLAG 256 -48 0
FLAG 752 -224 0
FLAG -64 -128 0
FLAG -1104 1136 0
FLAG 256 704 0
FLAG 752 528 0
FLAG -64 624 0
SYMBOL res -288 96 R90
WINDOW 0 0 56 VBottom 2
WINDOW 3 32 56 VTop 2
SYMATTR InstName R1
SYMATTR Value 82k
SYMBOL res 96 288 R180
WINDOW 0 36 76 Left 2
WINDOW 3 36 40 Left 2
SYMATTR InstName R2
SYMATTR Value 150k
SYMBOL OpAmps\\ADA4500 256 32 R0
SYMATTR InstName U1
SYMBOL voltage 256 48 R180
WINDOW 0 24 96 Left 2
WINDOW 3 24 16 Left 2
WINDOW 123 0 0 Left 0
WINDOW 39 0 0 Left 0
SYMATTR InstName V1
SYMATTR Value 5
SYMBOL voltage 256 144 R0
WINDOW 123 0 0 Left 0
WINDOW 39 0 0 Left 0
SYMATTR InstName V2
SYMATTR Value -5
SYMBOL res 768 320 R180
WINDOW 0 36 76 Left 2
WINDOW 3 36 40 Left 2
SYMATTR InstName R4
SYMATTR Value 1k
SYMBOL cap 1008 256 R0
WINDOW 3 44 35 Left 2
SYMATTR Value 160n
SYMATTR InstName C1
SYMBOL schottky 768 -48 R180
WINDOW 0 24 64 Left 2
WINDOW 3 24 0 Left 2
SYMATTR InstName D1
SYMATTR Value BAT54
SYMATTR Description Diode
SYMATTR Type diode
SYMBOL voltage 752 -128 R180
WINDOW 0 24 96 Left 2
WINDOW 3 24 16 Left 2
WINDOW 123 0 0 Left 0
WINDOW 39 0 0 Left 0
SYMATTR InstName V4
SYMATTR Value 3.3
SYMBOL res -48 224 R180
WINDOW 0 36 76 Left 2
WINDOW 3 36 40 Left 2
SYMATTR InstName R3
SYMATTR Value 39k
SYMBOL npn -128 240 R0
SYMATTR InstName Q1
SYMBOL res -128 272 R90
WINDOW 0 0 56 VBottom 2
WINDOW 3 32 56 VTop 2
SYMATTR InstName R6
SYMATTR Value 100
SYMBOL voltage -256 288 R90
WINDOW 123 0 0 Left 0
WINDOW 39 0 0 Left 0
SYMATTR InstName V5
SYMATTR Value 3.3
SYMBOL res 944 80 R90
WINDOW 0 0 56 VBottom 2
WINDOW 3 32 56 VTop 2
SYMATTR InstName R5
SYMATTR Value 100
SYMBOL res -736 96 R90
WINDOW 0 0 56 VBottom 2
WINDOW 3 32 56 VTop 2
SYMATTR InstName R8
SYMATTR Value 6800
SYMBOL res -80 -32 R0
SYMATTR InstName R9
SYMATTR Value 2.2Mega
SYMBOL voltage -64 -32 R180
WINDOW 123 0 0 Left 0
WINDOW 39 0 0 Left 0
SYMATTR InstName V6
SYMATTR Value 3.3
SYMBOL voltage -1104 144 R0
WINDOW 123 0 0 Left 0
WINDOW 39 0 0 Left 0
SYMATTR InstName V3
SYMATTR Value 12
SYMBOL res -288 848 R90
WINDOW 0 0 56 VBottom 2
WINDOW 3 32 56 VTop 2
SYMATTR InstName R10
SYMATTR Value 82k
SYMBOL res 96 1040 R180
WINDOW 0 36 76 Left 2
WINDOW 3 36 40 Left 2
SYMATTR InstName R11
SYMATTR Value 150k
SYMBOL OpAmps\\ADA4500 256 784 R0
SYMATTR InstName U2
SYMBOL voltage 256 800 R180
WINDOW 0 24 96 Left 2
WINDOW 3 24 16 Left 2
WINDOW 123 0 0 Left 0
WINDOW 39 0 0 Left 0
SYMATTR InstName V7
SYMATTR Value 5
SYMBOL voltage 256 896 R0
WINDOW 123 0 0 Left 0
WINDOW 39 0 0 Left 0
SYMATTR InstName V8
SYMATTR Value -5
SYMBOL res 768 1072 R180
WINDOW 0 36 76 Left 2
WINDOW 3 36 40 Left 2
SYMATTR InstName R12
SYMATTR Value 1k
SYMBOL cap 1008 1008 R0
WINDOW 3 44 35 Left 2
SYMATTR Value 160n
SYMATTR InstName C2
SYMBOL schottky 768 704 R180
WINDOW 0 24 64 Left 2
WINDOW 3 24 0 Left 2
SYMATTR InstName D2
SYMATTR Value BAT54
SYMATTR Description Diode
SYMATTR Type diode
SYMBOL voltage 752 624 R180
WINDOW 0 24 96 Left 2
WINDOW 3 24 16 Left 2
WINDOW 123 0 0 Left 0
WINDOW 39 0 0 Left 0
SYMATTR InstName V9
SYMATTR Value 3.3
SYMBOL res -48 976 R180
WINDOW 0 36 76 Left 2
WINDOW 3 36 40 Left 2
SYMATTR InstName R13
SYMATTR Value 39k
SYMBOL npn -128 992 R0
SYMATTR InstName Q2
SYMBOL res -128 1024 R90
WINDOW 0 0 56 VBottom 2
WINDOW 3 32 56 VTop 2
SYMATTR InstName R14
SYMATTR Value 100
SYMBOL voltage -256 1040 R90
WINDOW 123 0 0 Left 0
WINDOW 39 0 0 Left 0
SYMATTR InstName V10
SYMATTR Value 3.3
SYMBOL res 944 832 R90
WINDOW 0 0 56 VBottom 2
WINDOW 3 32 56 VTop 2
SYMATTR InstName R15
SYMATTR Value 100
SYMBOL res -80 720 R0
SYMATTR InstName R17
SYMATTR Value 2.2Mega
SYMBOL voltage -64 720 R180
WINDOW 123 0 0 Left 0
WINDOW 39 0 0 Left 0
SYMATTR InstName V11
SYMATTR Value 3.3
SYMBOL voltage -1104 896 R0
WINDOW 123 0 0 Left 0
WINDOW 39 0 0 Left 0
SYMATTR InstName V12
SYMATTR Value SINE(6 6 1000)
SYMBOL res -624 1024 R90
WINDOW 0 0 56 VBottom 2
WINDOW 3 32 56 VTop 2
SYMATTR InstName R16
SYMATTR Value 100
SYMBOL voltage -752 1040 R90
WINDOW 123 0 0 Left 0
WINDOW 39 0 0 Left 0
SYMATTR InstName V13
SYMATTR Value 0
SYMBOL res -544 992 R180
WINDOW 0 36 76 Left 2
WINDOW 3 36 40 Left 2
SYMATTR InstName R18
SYMATTR Value 5k
SYMBOL npn -624 992 R0
SYMATTR InstName Q3
SYMBOL res -544 272 R90
WINDOW 0 0 56 VBottom 2
WINDOW 3 32 56 VTop 2
SYMATTR InstName R7
SYMATTR Value 100
SYMBOL voltage -672 288 R90
WINDOW 123 0 0 Left 0
WINDOW 39 0 0 Left 0
SYMATTR InstName V14
SYMATTR Value 3.3
SYMBOL res -464 240 R180
WINDOW 0 36 76 Left 2
WINDOW 3 36 40 Left 2
SYMATTR InstName R19
SYMATTR Value 5k
SYMBOL npn -544 240 R0
SYMATTR InstName Q4
TEXT -1136 408 Left 2 !.tran 0.005
